Circuit: * D:\Documenti_A\Università\Corsi\Tesi\Progetto Kicad Lidar\Simulazioni_LTSpace\Simulazione_LT1719_condizionata.asc

WARNING: Specified period is not longer than the sum of Trise, Tfall, and Ton for v2.  Increasing period to 3e-09
Direct Newton iteration failed to find .op point.  (Use ".option noopiter" to skip.)
Starting Gmin stepping
Gmin = 10
Gmin = 1.07374
Gmin = 0.115292
Gmin = 0.0123794
Gmin = 0.00132923
Gmin = 0.000142725
Gmin = 1.5325e-05
Gmin = 1.6455e-06
Gmin = 1.76685e-07
Gmin = 1.89714e-08
Gmin = 2.03704e-09
Gmin = 2.18725e-10
Gmin = 2.34854e-11
Gmin = 2.52173e-12
Gmin = 2.70769e-13
Gmin = 0
Gmin stepping succeeded in finding the operating point.

.step vmax=0.5
.step vmax=1
.step vmax=1.5
.step vmax=2
.step vmax=2.5
.step vmax=3
.step vmax=3.3

Date: Thu Jul 24 10:07:08 2025
Total elapsed time: 0.533 seconds.

tnom = 27
temp = 27
method = modified trap
totiter = 2740
traniter = 2249
tranpoints = 1074
accept = 1068
rejected = 6
matrix size = 19
fillins = 6
solver = Normal
Avg thread counts: 1.3/1.6/1.6/1.3
Matrix Compiler1: 1.38 KB object code size  0.3/0.3/[0.2]
Matrix Compiler2: off  [0.2]/0.2/0.3

